14

         C     -1.889017      0.276617      0.223782 
         C     -0.441987      0.508291     -0.131037 
         C      0.423107     -0.707057      0.106098 
         C      1.853858     -0.194114      0.202733 
         H     -2.277822      1.227030      0.669783 
         H     -2.414887      0.068072     -0.738053 
         H     -1.933137     -0.559426      0.935750 
         H     -0.299408      0.791908     -1.200578 
         H     -0.033768      1.337994      0.487342 
         H      0.149555     -1.240665      1.029414 
         H      0.350420     -1.405362     -0.765897 
         H      2.520497     -0.896879      0.724485 
         H      1.813906      0.795539      0.725316 
         H      2.178685     -0.001947     -0.849101 
