11
  
C      -5.90174172      -3.18149642       3.98769680
C      -4.72888616      -2.38992327       3.41730432
C      -3.82017564      -3.27702808       2.57184445
H      -2.97679398      -2.67363204       2.17494732
H      -4.38545755      -3.70396166       1.71609871
H      -3.40644056      -4.10392593       3.18763759
H      -5.53278181      -4.00231002       4.63904093
H      -6.51334602      -3.61134318       3.16593139
H      -6.54424446      -2.50871493       4.59389120
H      -4.14058577      -1.95277512       4.25272832
H      -5.11767985      -1.55923454       2.78968952
